Circuit: * D:\INGENIERIA ELECTRONICA\11. Onceavo Semestre\Diseño de Sistemas Electrónicos\Design Project\Different Files\Final Files - Mauricio\SistemaReal.asc

Limiting rise time of source v1 to 0.0003
Limiting fall time of source v1 to 0.0003
Direct Newton iteration failed to find .op point.  (Use ".option noopiter" to skip.)
Starting Gmin stepping
Gmin = 10
Gmin = 1.07374
Gmin = 0.115292
Gmin = 0.0123794
Gmin = 0.00132923
Gmin = 0.000142725
Gmin = 1.5325e-05
vernier = 0.5
vernier = 0.666667
Gmin = 5.35545e-06
vernier = 0.888888
vernier = 1
Gmin = 8.09366e-07
Gmin = 8.6905e-08
Gmin = 9.33136e-09
Gmin = 1.00195e-09
Gmin = 1.07583e-10
Gmin = 1.15517e-11
Gmin = 1.24035e-12
Gmin = 1.33182e-13
Gmin = 0
Gmin stepping succeeded in finding the operating point.


Date: Thu Apr 11 10:40:15 2024
Total elapsed time: 4.389 seconds.

tnom = 27
temp = 27
method = modified trap
totiter = 41266
traniter = 40524
tranpoints = 20198
accept = 20138
rejected = 60
matrix size = 96
fillins = 81
solver = Normal
Avg thread counts: 1.1/1.1/1.1/1.1
Matrix Compiler1: 17.69 KB object code size  12.7/7.3/[4.8]
Matrix Compiler2: 12.02 KB object code size  5.5/5.8/[2.6]

