Circuit: * D:\INGENIERIA ELECTRONICA\11. Onceavo Semestre\Diseño de Sistemas Electrónicos\Design Project\Proyecto\Files PCB Design\Files LTSpice\SistemaReal.asc

Limiting rise time of source v1 to 0.0003
Limiting fall time of source v1 to 0.0003
Direct Newton iteration failed to find .op point.  (Use ".option noopiter" to skip.)
Starting Gmin stepping
Gmin = 10
Gmin = 1.07374
Gmin = 0.115292
Gmin = 0.0123794
Gmin = 0.00132923
Gmin = 0.000142725
Gmin = 1.5325e-05
vernier = 0.5
vernier = 0.666667
Gmin = 5.35545e-06
vernier = 0.888888
vernier = 1
Gmin = 8.09366e-07
Gmin = 8.6905e-08
Gmin = 9.33136e-09
Gmin = 1.00195e-09
Gmin = 1.07583e-10
Gmin = 1.15517e-11
Gmin = 1.24035e-12
Gmin = 1.33182e-13
Gmin = 0
Gmin stepping succeeded in finding the operating point.


Date: Wed Apr 10 23:24:12 2024
Total elapsed time: 6.244 seconds.

tnom = 27
temp = 27
method = modified trap
totiter = 41275
traniter = 40520
tranpoints = 20198
accept = 20138
rejected = 60
matrix size = 96
fillins = 81
solver = Normal
Avg thread counts: 1.1/1.1/1.1/1.1
Matrix Compiler1: 17.69 KB object code size  17.9/9.4/[4.9]
Matrix Compiler2: 12.02 KB object code size  5.2/5.4/[2.4]

